/*--------------------------------*- C++ -*----------------------------------*\
  =========                 |
  \\      /  F ield         | OpenFOAM: The Open Source CFD Toolbox
   \\    /   O peration     | Website:  https://openfoam.org
    \\  /    A nd           | Version:  dev
     \\/     M anipulation  |
\*---------------------------------------------------------------------------*/
FoamFile
{
    format      ascii;
    class       dictionary;
    location    "system";
    object      functions;
}
// * * * * * * * * * * * * * * * * * * * * * * * * * * * * * * * * * * * * * //

// Pressure probes at different x-positions
#includeFunc    probes
(
  funcName=p,
  p,
  points=
    (
      (0.5 0.03 0)    // Near inlet
      (1.0 0.03 0)    // 
      (1.5 0.03 0)    // 
      (2.0 0.03 0)    // 
      (2.5 0.03 0)    // 
      (3.0 0.03 0)    // 
      (3.5 0.03 0)    // 
      (4.0 0.03 0)    // 
      (4.5 0.03 0)    // Near outlet
    )
)

// Sampling lines at different y-positions
#includeFunc    graphCell(funcName=line1, c, start=(0 0.01 0), end=(5.1 0.01 0), axis=x, writeControl=adjustableRunTime, writeInterval=1e-5)
#includeFunc    graphCell(funcName=line2, c, start=(0 0.02 0), end=(5.1 0.02 0), axis=x, writeControl=adjustableRunTime, writeInterval=1e-5)
#includeFunc    graphCell(funcName=line3, c, start=(0 0.03 0), end=(5.1 0.03 0), axis=x, writeControl=adjustableRunTime, writeInterval=1e-5)
#includeFunc    graphCell(funcName=line4, c, start=(0 0.04 0), end=(5.1 0.04 0), axis=x, writeControl=adjustableRunTime, writeInterval=1e-5)
#includeFunc    graphCell(funcName=line5, c, start=(0 0.05 0), end=(5.1 0.05 0), axis=x, writeControl=adjustableRunTime, writeInterval=1e-5)
#includeFunc    graphCell(funcName=line6, c, start=(0 0.015 0), end=(5.1 0.015 0), axis=x, writeControl=adjustableRunTime, writeInterval=1e-5)
#includeFunc    graphCell(funcName=line7, c, start=(0 0.025 0), end=(5.1 0.025 0), axis=x, writeControl=adjustableRunTime, writeInterval=1e-5)
#includeFunc    graphCell(funcName=line8, c, start=(0 0.035 0), end=(5.1 0.035 0), axis=x, writeControl=adjustableRunTime, writeInterval=1e-5)
#includeFunc    graphCell(funcName=line9, c, start=(0 0.045 0), end=(5.1 0.045 0), axis=x, writeControl=adjustableRunTime, writeInterval=1e-5)
#includeFunc    graphCell(funcName=line10, c, start=(0 0.055 0), end=(5.1 0.055 0), axis=x, writeControl=adjustableRunTime, writeInterval=1e-5)

// ************************************************************************* //
