/*--------------------------------*- C++ -*----------------------------------*\
  =========                 |
  \\      /  F ield         | OpenFOAM: The Open Source CFD Toolbox
   \\    /   O peration     | Website:  https://openfoam.org
    \\  /    A nd           | Version:  dev
     \\/     M anipulation  |
\*---------------------------------------------------------------------------*/
FoamFile
{
    format      ascii;
    class       dictionary;
    object      setFieldsDict;
}

// * * * * * * * * * * * * * * * * * * * * * * * * * * * * * * * * * * * * * //
regions
(
    cylinderToCell
    {
        point1 (0 0.03 -1);
        point2 (0 0.03 1);
        radius  0.015;
        // ignition
        fieldValues
        (
            volScalarFieldValue c 1
            volScalarFieldValue T 1700 
        );
    }
);
// ************************************************************************* //

