/*--------------------------------*- C++ -*----------------------------------*\
  =========                 |
  \\      /  F ield         | OpenFOAM: The Open Source CFD Toolbox
   \\    /   O peration     | Website:  https://openfoam.org
    \\  /    A nd           | Version:  dev
     \\/     M anipulation  |
\*---------------------------------------------------------------------------*/
FoamFile
{
    format      ascii;
    class       dictionary;
    object      setFieldsDict;
}

// * * * * * * * * * * * * * * * * * * * * * * * * * * * * * * * * * * * * * //
regions
(
    cylinderToCell
    {
        point1 (0 -0.5 0);
        point2 (0 0.5 0);
        radius  0.02;
        // ignition
        fieldValues
        (
            volScalarFieldValue c 1
            volScalarFieldValue T 2000
        );
    }
);
// ************************************************************************* //

