/*--------------------------------*- C++ -*----------------------------------*\
  =========                 |
  \\      /  F ield         | OpenFOAM: The Open Source CFD Toolbox
   \\    /   O peration     | Website:  https://openfoam.org
    \\  /    A nd           | Version:  dev
     \\/     M anipulation  |
\*---------------------------------------------------------------------------*/
FoamFile
{
    format      ascii;
    class       dictionary;
    location    "constant";
    object      combustionProperties;
}
// * * * * * * * * * * * * * * * * * * * * * * * * * * * * * * * * * * * * * //

combustionModel flameFoam;

flameFoamCoeffs
{
    Tu false;
    debug false;

    X_H2_0 0.225;
    X_CO_0 0;
    X_CO2 0;
    X_H2O 0;

    Y_H2_99 0.0626;
    Y_CO_99 0;

    reactionRate DDT;
    laminarBurningVelocity hydrogenAirPower;
    wrinklingFactor wFTransport;
    autoIgnition aITransport;

    H0 1.1996e8;

    Le 1.48;
}


// ************************************************************************* //

