/*--------------------------------*- C++ -*----------------------------------*\
  =========                 |
  \\      /  F ield         | OpenFOAM: The Open Source CFD Toolbox
   \\    /   O peration     | Website:  https://openfoam.org
    \\  /    A nd           | Version:  dev
     \\/     M anipulation  |
\*---------------------------------------------------------------------------*/
FoamFile
{
    format      ascii;
    class       dictionary;
    location    "constant";
    object      combustionProperties;
}
// * * * * * * * * * * * * * * * * * * * * * * * * * * * * * * * * * * * * * //

combustionModel flameFoam;

flameFoamCoeffs
{
    Tu false;
    debug false;

    X_H2_0 0.225;
X_CO_0 0.0;
X_CO2 0.0;
X_H2O 0.0;

Y_H2_99    0.0;

 // Laminar burning velocity parameters
    SL_ref          2.1;        // Reference laminar burning velocity [m/s] for 22.5% H2
    T_ref           298;        // Reference temperature [K]
    p_ref           101325;     // Reference pressure [Pa]
    alpha_T         1.4;        // Temperature exponent
    beta_p          -0.4;       // Pressure exponent

    reactionRate DDT;
    laminarBurningVelocity hydrogenAirPower;
    wrinklingFactor wFTransport;
    autoIgnition aITransport;

    H0 1.1996e8;

    Le 0.467;
}


// ************************************************************************* //

