/*--------------------------------*- C++ -*----------------------------------*\
  =========                 |
  \\      /  F ield         | OpenFOAM: The Open Source CFD Toolbox
   \\    /   O peration     | Website:  https://openfoam.org
    \\  /    A nd           | Version:  dev
     \\/     M anipulation  |
\*---------------------------------------------------------------------------*/
FoamFile
{
    format      ascii;
    class       dictionary;
    location    "constant";
    object      physicalProperties;
}
// * * * * * * * * * * * * * * * * * * * * * * * * * * * * * * * * * * * * * //

thermoType
{
	type		heRhoThermo;
	mixture		multiComponentMixture;
	transport	sutherland;
	thermo		janaf;
	equationOfState	perfectGas;
	specie		specie;
	energy		sensibleEnthalpy;
}

species
(
	c
	b
);

defaultSpecie b;

X_H2_0 0.225;
X_CO_0 0.0;
X_CO2 0.0;
X_H2O 0.0;

Y_H2_99    0.0;
c
{
	specie
	{
		molWeight	25.803978681690143;
	}
	thermodynamics
	{
		Tlow	200;
		Tcommon	1500;
		Thigh	5000;
		highCpCoeffs
		(
			2.970237746588168 0.0016497594734414104 -4.7178211459494107e-07 5.601067585271655e-11 -1.5579431407913112e-15 -8328.342967212418 6.436211536555081
		);
		lowCpCoeffs
		(
			3.7016360806875177 -0.0009601973353537271 2.8210352066654106e-06 -1.6967368865063935e-09 3.313055236496102e-13 -8456.19013386839 2.915629628655335
		);
	}
	transport
	{
		As	1.85344414e-06;
		Ts	4.38273316e+02;
	}
}

b
{
	specie
	{
		molWeight	22.901031079999996;
	}
	thermodynamics
	{
		Tlow	200;
		Tcommon	1500;
		Thigh	5000;
		highCpCoeffs
		(
			3.073611016847009 0.00113008676548173 -3.546837853654971e-07 5.4706920681782724e-11 -3.099526079951998e-15 -963.4948479523011 4.771301077148543
		);
		lowCpCoeffs
		(
			3.438425630323332 -0.0001240773469894449 1.0515514018199535e-06 -5.326617687433041e-10 6.13711637852337e-14 -1027.8142999046677 3.0092227950906434
		);
	}
	transport
	{
		As	1.76983702e-06;
		Ts	3.23211759e+02;
	}
}


// ************************************************************************* //
