/*--------------------------------*- C++ -*----------------------------------*\
  =========                 |
  \\      /  F ield         | OpenFOAM: The Open Source CFD Toolbox
   \\    /   O peration     | Website:  https://openfoam.org
    \\  /    A nd           | Version:  dev
     \\/     M anipulation  |
\*---------------------------------------------------------------------------*/
FoamFile
{
    format      ascii;
    class       dictionary;
    location    "constant";
    object      physicalProperties;
}
// * * * * * * * * * * * * * * * * * * * * * * * * * * * * * * * * * * * * * //

thermoType
{
	type		heRhoThermo;
	mixture		multiComponentMixture;
	transport	sutherland;
	thermo		janaf;
	equationOfState	perfectGas;
	specie		specie;
	energy		sensibleEnthalpy;
}

// Initial mass fractions for H2-air mixture (22.5% H2 by volume)
   X_H2_0    0.0152;  // Mass fraction for H2
X_O2_0    0.2315;  // Mass fraction for O2
X_N2_0    0.7533;  // Mass fraction for N2 (balance)

Y_H2_99    0.0626;  // Mass fraction for H2
Y_O2_99    0;  // Mass fraction for O2
Y_N2_99    0;  // Mass fraction for N2 (balance)

inertSpecie N2;

species
(
    H2
    O2
    N2
);

H2
{
    specie
    {
        molWeight       2.01594;
    }
    thermodynamics
    {
        Tlow            200;
        Thigh           5000;
        Tcommon         1000;
        highCpCoeffs    ( 2.93286575 0.000826608026 -1.46402364e-07 1.54100414e-11 -6.888048e-16 -813.065581 -1.02432865 );
        lowCpCoeffs     ( 3.29812431 0.000824944174 -8.14301529e-07 -9.47543433e-11 4.13487224e-13 -1012.52086 -3.29409409 );
    }
    transport
    {
        As              1.67212e-06;
        Ts              170.672;
    }
}

O2
{
    specie
    {
        molWeight       31.9988;
    }
    thermodynamics
    {
        Tlow            200;
        Thigh           5000;
        Tcommon         1000;
        highCpCoeffs    ( 3.69757819 0.00061351969 -1.25884199e-07 1.77528148e-11 -1.13643531e-15 -1233.93018 3.18916559 );
        lowCpCoeffs     ( 3.78245636 -0.00299673415 9.847302e-06 -9.68129508e-09 3.24372836e-12 -1063.94356 3.65767573 );
    }
    transport
    {
        As              1.67212e-06;
        Ts              170.672;
    }
}

N2
{
    specie
    {
        molWeight       28.0134;
    }
    thermodynamics
    {
        Tlow            200;
        Thigh           5000;
        Tcommon         1000;
        highCpCoeffs    ( 2.92664 0.00148797682 -5.68476e-07 1.0097038e-10 -6.753351e-15 -922.7977 5.87188 );
        lowCpCoeffs     ( 3.298677 0.001408240e-02 -3.963222e-06 5.641515e-09 -2.444854e-12 -1020.8999 3.950372 );
    }
    transport
    {
        As              1.67212e-06;
        Ts              170.672;
    }
}


// ************************************************************************* //
