/*--------------------------------*- C++ -*----------------------------------*\
  =========                 |
  \\      /  F ield         | OpenFOAM: The Open Source CFD Toolbox
   \\    /   O peration     | Website:  https://openfoam.org
    \\  /    A nd           | Version:  dev
     \\/     M anipulation  |
\*---------------------------------------------------------------------------*/
FoamFile
{
    format      ascii;
    class       dictionary;
    location    "constant";
    object      physicalProperties;
}
// * * * * * * * * * * * * * * * * * * * * * * * * * * * * * * * * * * * * * //

thermoType
{
	type		heRhoThermo;
	mixture		multiComponentMixture;
	transport	sutherland;
	thermo		janaf;
	equationOfState	perfectGas;
	specie		specie;
	energy		sensibleEnthalpy;
}

// Initial mass fractions for H2-air mixture (22.5% H2 by volume)
   X_H2_0    0.0152;  // Mass fraction for H2
X_O2_0    0.2315;  // Mass fraction for O2
X_N2_0    0.7533;  // Mass fraction for N2 (balance)

Y_H2_99    0.0626;  // Mass fraction for H2
Y_O2_99    0;  // Mass fraction for O2
Y_N2_99    0;  // Mass fraction for N2 (balance)

species
(
	c
	b
);

defaultSpecie b;

c
{
	specie
	{
		molWeight	22.611614250571584;
	}
	thermodynamics
	{
		Tlow	273.15;
		Tcommon	1500;
		Thigh	5000;
		highCpCoeffs
		(
			2.99428521e+00 1.55613175e-03 -3.40827449e-07 1.25856182e-11 3.13544562e-15 -10128.79590951555 5.67474696979971
		);
		lowCpCoeffs
		(
			3.77798841e+00 -1.12721015e-03 2.98367529e-06 -1.75810978e-09 3.45717700e-13 -10269.225096096794 1.8767638186959168
		);
	}
	transport
	{
		As	1.86818705e-06;
		Ts	4.88961511e+02;
	}
}

b
{
	specie
	{
		molWeight	19.532477680000003;
	}
	thermodynamics
	{
		Tlow	273.15;
		Tcommon	1500;
		Thigh	5000;
		highCpCoeffs
		(
			3.11613814e+00 9.39846566e-04 -2.16919178e-07 1.69209022e-11 6.30322901e-16 -968.8797399618969 3.6713670213194654
		);
		lowCpCoeffs
		(
			3.53628427e+00 -5.55497880e-04 1.66249545e-06 -9.75425506e-10 1.86230001e-13 -1042.4139643743044 1.6482472171701446
		);
	}
	transport
	{
		As	1.74850231e-06;
		Ts	3.32703783e+02;
	}
}




// ************************************************************************* //
